296
P16 S16
 P    7.379290   -0.842087   -3.749978
 P    7.379290   -2.862923  -12.480501
 P   16.598991   -0.842087   -3.749978
 P   16.598991   -2.862923  -12.480501
 P    7.379290    9.232686   -3.749978
 P    7.379290    7.211850  -12.480501
 P   16.598991    9.232686   -3.749978
 P   16.598991    7.211850  -12.480501
 P    7.379290    9.906442   -0.615284
 P    7.379290    7.885607   -9.345808
 P   16.598991    9.906442   -0.615284
 P   16.598991    7.885607   -9.345808
 P    7.379290   19.981215   -0.615284
 P    7.379290   17.960379   -9.345808
 P   16.598991   19.981215   -0.615284
 P   16.598991   17.960379   -9.345808
 P    1.840411    8.896024   -4.980546
 P    1.840411    6.875189  -13.711070
 P   11.060111    8.896024   -4.980546
 P   11.060111    6.875189  -13.711070
 P    1.840411   18.970797   -4.980546
 P    1.840411   16.949962  -13.711070
 P   11.060111   18.970797   -4.980546
 P   11.060111   16.949962  -13.711070
 P    1.840411   -1.852505   -8.115239
 P    1.840411   -3.873341  -16.845763
 P   11.060111   -1.852505   -8.115239
 P   11.060111   -3.873341  -16.845763
 P    1.840411    8.222268   -8.115239
 P    1.840411    6.201432  -16.845763
 P   11.060111    8.222268   -8.115239
 P   11.060111    6.201432  -16.845763
 P    5.700451    8.322734   -1.165789
 P    5.700451    6.301899   -9.896312
 P   14.920152    8.322734   -1.165789
 P   14.920152    6.301899   -9.896312
 P    5.700451   18.397507   -1.165789
 P    5.700451   16.376671   -9.896312
 P   14.920152   18.397507   -1.165789
 P   14.920152   16.376671   -9.896312
 P    5.700451    0.741621   -3.199473
 P    5.700451   -1.279215  -11.929997
 P   14.920152    0.741621   -3.199473
 P   14.920152   -1.279215  -11.929997
 P    5.700451   10.816394   -3.199473
 P    5.700451    8.795558  -11.929997
 P   14.920152   10.816394   -3.199473
 P   14.920152    8.795558  -11.929997
 P    3.519250   -0.268797   -7.564735
 P    3.519250   -2.289633  -16.295258
 P   12.738951   -0.268797   -7.564735
 P   12.738951   -2.289633  -16.295258
 P    3.519250    9.805976   -7.564735
 P    3.519250    7.785140  -16.295258
 P   12.738951    9.805976   -7.564735
 P   12.738951    7.785140  -16.295258
 P    3.519250    7.312316   -5.531051
 P    3.519250    5.291481  -14.261574
 P   12.738951    7.312316   -5.531051
 P   12.738951    5.291481  -14.261574
 P    3.519250   17.387089   -5.531051
 P    3.519250   15.366254  -14.261574
 P   12.738951   17.387089   -5.531051
 P   12.738951   15.366254  -14.261574
 P    2.769440    4.195299   -3.749978
 P    2.769440    2.174464  -12.480501
 P   11.989141    4.195299   -3.749978
 P   11.989141    2.174464  -12.480501
 P    2.769440   14.270072   -3.749978
 P    2.769440   12.249236  -12.480501
 P   11.989141   14.270072   -3.749978
 P   11.989141   12.249236  -12.480501
 P    2.769440    4.869056   -0.615284
 P    2.769440    2.848220   -9.345808
 P   11.989141    4.869056   -0.615284
 P   11.989141    2.848220   -9.345808
 P    2.769440   14.943829   -0.615284
 P    2.769440   12.922993   -9.345808
 P   11.989141   14.943829   -0.615284
 P   11.989141   12.922993   -9.345808
 P    6.450261    3.858638   -4.980546
 P    6.450261    1.837802  -13.711070
 P   15.669962    3.858638   -4.980546
 P   15.669962    1.837802  -13.711070
 P    6.450261   13.933411   -4.980546
 P    6.450261   11.912575  -13.711070
 P   15.669962   13.933411   -4.980546
 P   15.669962   11.912575  -13.711070
 P    6.450261    3.184881   -8.115239
 P    6.450261    1.164046  -16.845763
 P   15.669962    3.184881   -8.115239
 P   15.669962    1.164046  -16.845763
 P    6.450261   13.259654   -8.115239
 P    6.450261   11.238819  -16.845763
 P   15.669962   13.259654   -8.115239
 P   15.669962   11.238819  -16.845763
 P    1.090600    3.285348   -1.165789
 P    1.090600    1.264512   -9.896312
 P   10.310301    3.285348   -1.165789
 P   10.310301    1.264512   -9.896312
 P    1.090600   13.360121   -1.165789
 P    1.090600   11.339285   -9.896312
 P   10.310301   13.360121   -1.165789
 P   10.310301   11.339285   -9.896312
 P    1.090600    5.779007   -3.199473
 P    1.090600    3.758172  -11.929997
 P   10.310301    5.779007   -3.199473
 P   10.310301    3.758172  -11.929997
 P    1.090600   15.853780   -3.199473
 P    1.090600   13.832944  -11.929997
 P   10.310301   15.853780   -3.199473
 P   10.310301   13.832944  -11.929997
 P    8.129101    4.768589   -7.564735
 P    8.129101    2.747754  -16.295258
 P   17.348801    4.768589   -7.564735
 P   17.348801    2.747754  -16.295258
 P    8.129101   14.843362   -7.564735
 P    8.129101   12.822527  -16.295258
 P   17.348801   14.843362   -7.564735
 P   17.348801   12.822527  -16.295258
 P    8.129101    2.274930   -5.531051
 P    8.129101    0.254094  -14.261574
 P   17.348801    2.274930   -5.531051
 P   17.348801    0.254094  -14.261574
 P    8.129101   12.349703   -5.531051
 P    8.129101   10.328867  -14.261574
 P   17.348801   12.349703   -5.531051
 P   17.348801   10.328867  -14.261574
 S    4.330030   -0.505209   -2.182631
 S    4.330030   -2.526045  -10.913154
 S   13.549731   -0.505209   -2.182631
 S   13.549731   -2.526045  -10.913154
 S    4.330030    9.569564   -2.182631
 S    4.330030    7.548728  -10.913154
 S   13.549731    9.569564   -2.182631
 S   13.549731    7.548728  -10.913154
 S    4.330030   19.644337   -2.182631
 S    4.330030   17.623501  -10.913154
 S   13.549731   19.644337   -2.182631
 S   13.549731   17.623501  -10.913154
 S    4.889671   -1.515627   -6.547893
 S    4.889671   -3.536462  -15.278416
 S   14.109372   -1.515627   -6.547893
 S   14.109372   -3.536462  -15.278416
 S    4.889671    8.559146   -6.547893
 S    4.889671    6.538310  -15.278416
 S   14.109372    8.559146   -6.547893
 S   14.109372    6.538310  -15.278416
 S    4.889671   18.633919   -6.547893
 S    4.889671   16.613083  -15.278416
 S   14.109372   18.633919   -6.547893
 S   14.109372   16.613083  -15.278416
 S    8.746269   -0.505209   -2.182631
 S    8.746269   -2.526045  -10.913154
 S   17.965969   -0.505209   -2.182631
 S   17.965969   -2.526045  -10.913154
 S    8.746269    9.569564   -2.182631
 S    8.746269    7.548728  -10.913154
 S   17.965969    9.569564   -2.182631
 S   17.965969    7.548728  -10.913154
 S    8.746269   19.644337   -2.182631
 S    8.746269   17.623501  -10.913154
 S   17.965969   19.644337   -2.182631
 S   17.965969   17.623501  -10.913154
 S    0.473432   -1.515627   -6.547893
 S    0.473432   -3.536462  -15.278416
 S    9.693133   -1.515627   -6.547893
 S    9.693133   -3.536462  -15.278416
 S    0.473432    8.559146   -6.547893
 S    0.473432    6.538310  -15.278416
 S    9.693133    8.559146   -6.547893
 S    9.693133    6.538310  -15.278416
 S    0.473432   18.633919   -6.547893
 S    0.473432   16.613083  -15.278416
 S    9.693133   18.633919   -6.547893
 S    9.693133   16.613083  -15.278416
 S    6.539038    7.490362   -2.906780
 S    6.539038    5.469526  -11.637304
 S   15.758739    7.490362   -2.906780
 S   15.758739    5.469526  -11.637304
 S    6.539038   17.565135   -2.906780
 S    6.539038   15.544299  -11.637304
 S   15.758739   17.565135   -2.906780
 S   15.758739   15.544299  -11.637304
 S    6.539038    1.573993   -1.458482
 S    6.539038   -0.446843  -10.189005
 S   15.758739    1.573993   -1.458482
 S   15.758739   -0.446843  -10.189005
 S    6.539038   11.648766   -1.458482
 S    6.539038    9.627930  -10.189005
 S   15.758739   11.648766   -1.458482
 S   15.758739    9.627930  -10.189005
 S    2.680662    0.563575   -5.823744
 S    2.680662   -1.457261  -14.554267
 S   11.900363    0.563575   -5.823744
 S   11.900363   -1.457261  -14.554267
 S    2.680662   10.638348   -5.823744
 S    2.680662    8.617512  -14.554267
 S   11.900363   10.638348   -5.823744
 S   11.900363    8.617512  -14.554267
 S    2.680662    6.479944   -7.272042
 S    2.680662    4.459109  -16.002565
 S   11.900363    6.479944   -7.272042
 S   11.900363    4.459109  -16.002565
 S    2.680662   16.554717   -7.272042
 S    2.680662   14.533881  -16.002565
 S   11.900363   16.554717   -7.272042
 S   11.900363   14.533881  -16.002565
 S    8.939880    4.532178   -2.182631
 S    8.939880    2.511342  -10.913154
 S   18.159581    4.532178   -2.182631
 S   18.159581    2.511342  -10.913154
 S    8.939880   14.606950   -2.182631
 S    8.939880   12.586115  -10.913154
 S   18.159581   14.606950   -2.182631
 S   18.159581   12.586115  -10.913154
 S    0.279821    3.521760   -6.547893
 S    0.279821    1.500924  -15.278416
 S    9.499521    3.521760   -6.547893
 S    9.499521    1.500924  -15.278416
 S    0.279821   13.596533   -6.547893
 S    0.279821   11.575697  -15.278416
 S    9.499521   13.596533   -6.547893
 S    9.499521   11.575697  -15.278416
 S    4.136418    4.532178   -2.182631
 S    4.136418    2.511342  -10.913154
 S   13.356119    4.532178   -2.182631
 S   13.356119    2.511342  -10.913154
 S    4.136418   14.606950   -2.182631
 S    4.136418   12.586115  -10.913154
 S   13.356119   14.606950   -2.182631
 S   13.356119   12.586115  -10.913154
 S    5.083283    3.521760   -6.547893
 S    5.083283    1.500924  -15.278416
 S   14.302983    3.521760   -6.547893
 S   14.302983    1.500924  -15.278416
 S    5.083283   13.596533   -6.547893
 S    5.083283   11.575697  -15.278416
 S   14.302983   13.596533   -6.547893
 S   14.302983   11.575697  -15.278416
 S    1.929188    2.452976   -2.906780
 S    1.929188    0.432140  -11.637304
 S   11.148889    2.452976   -2.906780
 S   11.148889    0.432140  -11.637304
 S    1.929188   12.527749   -2.906780
 S    1.929188   10.506913  -11.637304
 S   11.148889   12.527749   -2.906780
 S   11.148889   10.506913  -11.637304
 S    1.929188    6.611379   -1.458482
 S    1.929188    4.590544  -10.189005
 S   11.148889    6.611379   -1.458482
 S   11.148889    4.590544  -10.189005
 S    1.929188   16.686152   -1.458482
 S    1.929188   14.665317  -10.189005
 S   11.148889   16.686152   -1.458482
 S   11.148889   14.665317  -10.189005
 S    7.290513    5.600962   -5.823744
 S    7.290513    3.580126  -14.554267
 S   16.510214    5.600962   -5.823744
 S   16.510214    3.580126  -14.554267
 S    7.290513   15.675734   -5.823744
 S    7.290513   13.654899  -14.554267
 S   16.510214   15.675734   -5.823744
 S   16.510214   13.654899  -14.554267
 S    7.290513    1.442558   -7.272042
 S    7.290513   -0.578278  -16.002565
 S   16.510214    1.442558   -7.272042
 S   16.510214   -0.578278  -16.002565
 S    7.290513   11.517331   -7.272042
 S    7.290513    9.496495  -16.002565
 S   16.510214   11.517331   -7.272042
 S   16.510214    9.496495  -16.002565
 S    6.539038   -2.584411   -2.906780
 S    6.539038   -4.605246  -11.637304
 S   15.758739   -2.584411   -2.906780
 S   15.758739   -4.605246  -11.637304
 S    6.539038   21.723539   -1.458482
 S    6.539038   19.702703  -10.189005
 S   15.758739   21.723539   -1.458482
 S   15.758739   19.702703  -10.189005
 S    2.680662   20.713121   -5.823744
 S    2.680662   18.692285  -14.554267
 S   11.900363   20.713121   -5.823744
 S   11.900363   18.692285  -14.554267
 S    2.680662   -3.594829   -7.272042
 S    2.680662   -5.615664  -16.002565
 S   11.900363   -3.594829   -7.272042
 S   11.900363   -5.615664  -16.002565
 S   -0.279821    4.532178   -2.182631
 S   -0.279821    2.511342  -10.913154
 S   -0.279821   14.606950   -2.182631
 S   -0.279821   12.586115  -10.913154
 S   18.719222    3.521760   -6.547893
 S   18.719222    1.500924  -15.278416
 S   18.719222   13.596533   -6.547893
 S   18.719222   11.575697  -15.278416
